<?xml version="1.0" encoding="UTF-8"?>

<!-- generated on 2025-03-21 22:29:14 by Eclipse SUMO netedit Version 1.22.0
<neteditConfiguration xmlns:xsi="http://www.w3.org/2001/XMLSchema-instance" xsi:noNamespaceSchemaLocation="http://sumo.dlr.de/xsd/neteditConfiguration.xsd">

    <input>
        <sumocfg-file value="C:\Users\HP\Downloads\PE2_extra\extra.sumocfg"/>
        <sumo-net-file value="C:\Users\HP\Downloads\PE2_extra\extra.net.xml"/>
    </input>

    <output>
        <output-file value="C:\Users\HP\Downloads\PE2_extra\extra.net.xml"/>
    </output>

    <processing>
        <offset.disable-normalization value="true"/>
    </processing>

    <junctions>
        <no-turnarounds value="true"/>
    </junctions>

    <netedit>
        <new-network value="false"/>
    </netedit>

</neteditConfiguration>
-->

<net version="1.20" junctionCornerDetail="5" limitTurnSpeed="5.50" xmlns:xsi="http://www.w3.org/2001/XMLSchema-instance" xsi:noNamespaceSchemaLocation="http://sumo.dlr.de/xsd/net_file.xsd">

    <location netOffset="0.00,0.00" convBoundary="-129.03,-90.94,138.32,81.28" origBoundary="10000000000.00,10000000000.00,-10000000000.00,-10000000000.00" projParameter="!"/>

    <edge id=":J10_0" function="internal">
        <lane id=":J10_0_0" index="0" speed="7.15" length="11.08" shape="79.80,-50.22 77.34,-49.72 75.57,-48.21 74.50,-45.71 74.13,-42.20"/>
    </edge>
    <edge id=":J10_1" function="internal">
        <lane id=":J10_1_0" index="0" speed="13.89" length="21.63" shape="79.80,-50.22 75.16,-49.36 69.52,-47.29 63.99,-44.75 59.74,-42.47"/>
    </edge>
    <edge id=":J10_2" function="internal">
        <lane id=":J10_2_0" index="0" speed="13.89" length="23.02" shape="79.80,-50.22 56.78,-50.24"/>
    </edge>
    <edge id=":J10_3" function="internal">
        <lane id=":J10_3_0" index="0" speed="7.99" length="4.08" shape="79.80,-50.22 75.94,-50.77 75.79,-50.86"/>
    </edge>
    <edge id=":J10_20" function="internal">
        <lane id=":J10_20_0" index="0" speed="7.99" length="10.14" shape="75.79,-50.86 73.19,-52.43 71.55,-55.18 71.02,-59.05"/>
    </edge>
    <edge id=":J10_4" function="internal">
        <lane id=":J10_4_0" index="0" speed="6.49" length="9.03" shape="74.22,-59.03 74.56,-56.57 75.60,-54.82 77.35,-53.77 79.80,-53.42"/>
    </edge>
    <edge id=":J10_5" function="internal">
        <lane id=":J10_5_0" index="0" speed="13.89" length="16.82" shape="74.22,-59.03 74.13,-42.20"/>
    </edge>
    <edge id=":J10_6" function="internal">
        <lane id=":J10_6_0" index="0" speed="12.91" length="3.35" shape="74.22,-59.03 73.48,-55.76"/>
    </edge>
    <edge id=":J10_7" function="internal">
        <lane id=":J10_7_0" index="0" speed="9.77" length="2.70" shape="74.22,-59.03 73.48,-56.43"/>
    </edge>
    <edge id=":J10_21" function="internal">
        <lane id=":J10_21_0" index="0" speed="12.91" length="19.49" shape="73.48,-55.76 73.30,-54.94 70.58,-50.82 66.06,-46.67 59.74,-42.47"/>
    </edge>
    <edge id=":J10_22" function="internal">
        <lane id=":J10_22_0" index="0" speed="9.77" length="18.90" shape="73.48,-56.43 73.11,-55.17 69.84,-52.43 64.39,-50.78 56.78,-50.24"/>
    </edge>
    <edge id=":J10_8" function="internal">
        <lane id=":J10_8_0" index="0" speed="8.63" length="16.61" shape="56.79,-53.44 63.00,-53.78 67.45,-54.83 70.12,-56.59 71.02,-59.05"/>
    </edge>
    <edge id=":J10_9" function="internal">
        <lane id=":J10_9_0" index="0" speed="13.89" length="23.02" shape="56.79,-53.44 79.80,-53.42"/>
    </edge>
    <edge id=":J10_10" function="internal">
        <lane id=":J10_10_0" index="0" speed="10.09" length="7.64" shape="56.79,-53.44 64.40,-52.73"/>
    </edge>
    <edge id=":J10_11" function="internal">
        <lane id=":J10_11_0" index="0" speed="6.37" length="2.41" shape="56.79,-53.44 59.07,-52.70"/>
    </edge>
    <edge id=":J10_23" function="internal">
        <lane id=":J10_23_0" index="0" speed="10.09" length="15.62" shape="64.40,-52.73 69.82,-50.62 73.07,-47.11 74.13,-42.20"/>
    </edge>
    <edge id=":J10_24" function="internal">
        <lane id=":J10_24_0" index="0" speed="6.37" length="13.03" shape="59.07,-52.70 60.68,-52.17 62.67,-49.15 62.47,-45.53 59.74,-42.47"/>
    </edge>
    <edge id=":J10_12" function="internal">
        <lane id=":J10_12_0" index="0" speed="5.52" length="11.14" shape="58.13,-45.24 61.25,-47.42 62.07,-48.98 60.58,-49.92 56.78,-50.24"/>
    </edge>
    <edge id=":J10_13" function="internal">
        <lane id=":J10_13_0" index="0" speed="11.97" length="19.56" shape="58.13,-45.24 63.76,-48.91 67.78,-52.44 70.20,-55.82 71.02,-59.05"/>
    </edge>
    <edge id=":J10_14" function="internal">
        <lane id=":J10_14_0" index="0" speed="13.89" length="23.29" shape="58.13,-45.24 62.63,-47.58 68.71,-50.27 74.91,-52.49 79.80,-53.42"/>
    </edge>
    <edge id=":J10_15" function="internal">
        <lane id=":J10_15_0" index="0" speed="8.27" length="21.42" shape="58.13,-45.24 65.15,-48.56 70.16,-49.17 73.15,-47.05 74.13,-42.20"/>
    </edge>
    <edge id=":J10_16" function="internal">
        <lane id=":J10_16_0" index="0" speed="6.80" length="14.00" shape="70.93,-42.22 70.24,-44.79 68.15,-45.69 64.65,-44.91 59.74,-42.47"/>
    </edge>
    <edge id=":J10_17" function="internal">
        <lane id=":J10_17_0" index="0" speed="8.97" length="18.16" shape="70.93,-42.22 70.06,-45.72 67.41,-48.23 62.99,-49.73 56.78,-50.24"/>
    </edge>
    <edge id=":J10_18" function="internal">
        <lane id=":J10_18_0" index="0" speed="13.89" length="16.83" shape="70.93,-42.22 71.02,-59.05"/>
    </edge>
    <edge id=":J10_19" function="internal">
        <lane id=":J10_19_0" index="0" speed="8.53" length="5.19" shape="70.93,-42.22 71.51,-47.12 71.62,-47.35"/>
    </edge>
    <edge id=":J10_25" function="internal">
        <lane id=":J10_25_0" index="0" speed="8.53" length="11.01" shape="71.62,-47.35 73.18,-50.62 75.94,-52.72 79.80,-53.42"/>
    </edge>
    <edge id=":J11_0" function="internal">
        <lane id=":J11_0_0" index="0" speed="7.10" length="10.95" shape="-82.25,-42.55 -82.60,-46.01 -83.65,-48.47 -85.40,-49.96 -87.85,-50.45"/>
    </edge>
    <edge id=":J11_1" function="internal">
        <lane id=":J11_1_0" index="0" speed="13.89" length="16.70" shape="-82.25,-42.55 -82.25,-59.25"/>
    </edge>
    <edge id=":J11_2" function="internal">
        <lane id=":J11_2_0" index="0" speed="10.15" length="3.24" shape="-82.25,-42.55 -81.53,-45.71"/>
    </edge>
    <edge id=":J11_3" function="internal">
        <lane id=":J11_3_0" index="0" speed="8.35" length="3.43" shape="-82.25,-42.55 -81.53,-45.90"/>
    </edge>
    <edge id=":J11_20" function="internal">
        <lane id=":J11_20_0" index="0" speed="10.15" length="20.26" shape="-81.53,-45.71 -81.14,-47.41 -77.81,-50.87 -72.27,-52.94 -64.50,-53.63"/>
    </edge>
    <edge id=":J11_21" function="internal">
        <lane id=":J11_21_0" index="0" speed="8.35" length="18.26" shape="-81.53,-45.90 -81.22,-47.33 -78.14,-49.40 -73.01,-48.78 -65.82,-45.46"/>
    </edge>
    <edge id=":J11_4" function="internal">
        <lane id=":J11_4_0" index="0" speed="6.91" length="14.38" shape="-67.40,-42.68 -72.50,-45.16 -76.14,-45.96 -78.32,-45.09 -79.05,-42.55"/>
    </edge>
    <edge id=":J11_5" function="internal">
        <lane id=":J11_5_0" index="0" speed="13.89" length="22.00" shape="-67.40,-42.68 -71.73,-44.94 -77.38,-47.49 -83.16,-49.58 -87.85,-50.45"/>
    </edge>
    <edge id=":J11_6" function="internal">
        <lane id=":J11_6_0" index="0" speed="12.84" length="23.13" shape="-67.40,-42.68 -73.90,-46.88 -78.54,-51.04 -81.32,-55.16 -82.25,-59.25"/>
    </edge>
    <edge id=":J11_7" function="internal">
        <lane id=":J11_7_0" index="0" speed="6.34" length="15.41" shape="-67.40,-42.68 -70.14,-45.70 -70.36,-49.32 -68.38,-52.36 -64.50,-53.63"/>
    </edge>
    <edge id=":J11_8" function="internal">
        <lane id=":J11_8_0" index="0" speed="5.54" length="11.28" shape="-64.51,-50.43 -68.37,-50.12 -69.87,-49.19 -69.02,-47.64 -65.82,-45.46"/>
    </edge>
    <edge id=":J11_9" function="internal">
        <lane id=":J11_9_0" index="0" speed="9.04" length="18.41" shape="-64.51,-50.43 -70.87,-49.94 -75.42,-48.47 -78.14,-46.00 -79.05,-42.55"/>
    </edge>
    <edge id=":J11_10" function="internal">
        <lane id=":J11_10_0" index="0" speed="13.89" length="23.34" shape="-64.51,-50.43 -87.85,-50.45"/>
    </edge>
    <edge id=":J11_11" function="internal">
        <lane id=":J11_11_0" index="0" speed="9.82" length="8.23" shape="-64.51,-50.43 -72.27,-50.99 -72.70,-51.11"/>
    </edge>
    <edge id=":J11_22" function="internal">
        <lane id=":J11_22_0" index="0" speed="9.82" length="13.67" shape="-72.70,-51.11 -77.82,-52.64 -81.14,-55.40 -82.25,-59.25"/>
    </edge>
    <edge id=":J11_12" function="internal">
        <lane id=":J11_12_0" index="0" speed="8.69" length="16.90" shape="-79.05,-59.25 -78.14,-56.80 -75.41,-55.04 -70.87,-53.98 -64.50,-53.63"/>
    </edge>
    <edge id=":J11_13" function="internal">
        <lane id=":J11_13_0" index="0" speed="11.91" length="19.79" shape="-79.05,-59.25 -78.22,-56.04 -75.74,-52.67 -71.61,-49.14 -65.82,-45.46"/>
    </edge>
    <edge id=":J11_14" function="internal">
        <lane id=":J11_14_0" index="0" speed="13.89" length="16.70" shape="-79.05,-59.25 -79.05,-42.55"/>
    </edge>
    <edge id=":J11_15" function="internal">
        <lane id=":J11_15_0" index="0" speed="8.00" length="4.07" shape="-79.05,-59.25 -79.60,-55.40 -79.69,-55.25"/>
    </edge>
    <edge id=":J11_23" function="internal">
        <lane id=":J11_23_0" index="0" speed="8.00" length="10.13" shape="-79.69,-55.25 -81.25,-52.65 -84.00,-51.00 -87.85,-50.45"/>
    </edge>
    <edge id=":J11_16" function="internal">
        <lane id=":J11_16_0" index="0" speed="6.51" length="9.03" shape="-87.85,-53.65 -85.40,-54.00 -83.65,-55.05 -82.60,-56.80 -82.25,-59.25"/>
    </edge>
    <edge id=":J11_17" function="internal">
        <lane id=":J11_17_0" index="0" speed="13.89" length="23.35" shape="-87.85,-53.65 -64.50,-53.63"/>
    </edge>
    <edge id=":J11_18" function="internal">
        <lane id=":J11_18_0" index="0" speed="13.89" length="3.88" shape="-87.85,-53.65 -84.04,-52.93"/>
    </edge>
    <edge id=":J11_19" function="internal">
        <lane id=":J11_19_0" index="0" speed="8.49" length="3.80" shape="-87.85,-53.65 -84.11,-52.98"/>
    </edge>
    <edge id=":J11_24" function="internal">
        <lane id=":J11_24_0" index="0" speed="13.89" length="19.74" shape="-84.04,-52.93 -82.91,-52.72 -76.59,-50.48 -70.40,-47.78 -65.82,-45.46"/>
    </edge>
    <edge id=":J11_25" function="internal">
        <lane id=":J11_25_0" index="0" speed="8.49" length="12.29" shape="-84.11,-52.98 -84.00,-52.96 -81.25,-50.87 -79.60,-47.41 -79.05,-42.55"/>
    </edge>
    <edge id=":J12_0" function="internal">
        <lane id=":J12_0_0" index="0" speed="11.00" length="16.01" shape="4.70,-1.71 0.92,-3.32 -2.89,-3.86 -6.73,-3.34 -10.59,-1.75"/>
    </edge>
    <edge id=":J12_1" function="internal">
        <lane id=":J12_1_0" index="0" speed="13.89" length="19.30" shape="4.70,-1.71 -12.08,-11.25"/>
    </edge>
    <edge id=":J12_2" function="internal">
        <lane id=":J12_2_0" index="0" speed="7.40" length="4.94" shape="4.70,-1.71 0.77,-4.70"/>
    </edge>
    <edge id=":J12_12" function="internal">
        <lane id=":J12_12_0" index="0" speed="7.40" length="11.88" shape="0.77,-4.70 0.68,-4.77 -0.68,-7.84 0.64,-10.92 4.63,-14.02"/>
    </edge>
    <edge id=":J12_3" function="internal">
        <lane id=":J12_3_0" index="0" speed="5.67" length="9.24" shape="6.24,-11.26 4.05,-9.56 3.33,-7.86 4.07,-6.17 6.28,-4.49"/>
    </edge>
    <edge id=":J12_4" function="internal">
        <lane id=":J12_4_0" index="0" speed="13.89" length="19.34" shape="6.24,-11.26 -10.59,-1.75"/>
    </edge>
    <edge id=":J12_5" function="internal">
        <lane id=":J12_5_0" index="0" speed="11.71" length="5.41" shape="6.24,-11.26 2.12,-9.77 1.10,-9.67"/>
    </edge>
    <edge id=":J12_13" function="internal">
        <lane id=":J12_13_0" index="0" speed="11.71" length="13.47" shape="1.10,-9.67 -2.87,-9.27 -7.89,-9.77 -12.08,-11.25"/>
    </edge>
    <edge id=":J12_6" function="internal">
        <lane id=":J12_6_0" index="0" speed="10.77" length="15.88" shape="-10.49,-14.03 -6.67,-12.39 -2.88,-11.85 0.89,-12.39 4.63,-14.02"/>
    </edge>
    <edge id=":J12_7" function="internal">
        <lane id=":J12_7_0" index="0" speed="13.89" length="19.30" shape="-10.49,-14.03 6.28,-4.49"/>
    </edge>
    <edge id=":J12_8" function="internal">
        <lane id=":J12_8_0" index="0" speed="7.39" length="5.02" shape="-10.49,-14.03 -6.49,-11.00"/>
    </edge>
    <edge id=":J12_14" function="internal">
        <lane id=":J12_14_0" index="0" speed="7.39" length="12.00" shape="-6.49,-11.00 -6.39,-10.92 -5.04,-7.84 -6.44,-4.78 -10.59,-1.75"/>
    </edge>
    <edge id=":J12_9" function="internal">
        <lane id=":J12_9_0" index="0" speed="5.64" length="9.27" shape="-12.13,-4.55 -9.87,-6.21 -9.10,-7.88 -9.84,-9.55 -12.08,-11.25"/>
    </edge>
    <edge id=":J12_10" function="internal">
        <lane id=":J12_10_0" index="0" speed="13.89" length="19.25" shape="-12.13,-4.55 4.63,-14.02"/>
    </edge>
    <edge id=":J12_11" function="internal">
        <lane id=":J12_11_0" index="0" speed="11.93" length="5.17" shape="-12.13,-4.55 -7.92,-5.98 -7.20,-6.05"/>
    </edge>
    <edge id=":J12_15" function="internal">
        <lane id=":J12_15_0" index="0" speed="11.93" length="13.77" shape="-7.20,-6.05 -2.88,-6.45 2.15,-5.95 6.28,-4.49"/>
    </edge>
    <edge id=":J8_0" function="internal">
        <lane id=":J8_0_0" index="0" speed="6.53" length="9.07" shape="-82.22,41.98 -82.58,39.52 -83.64,37.76 -85.40,36.70 -87.85,36.35"/>
    </edge>
    <edge id=":J8_1" function="internal">
        <lane id=":J8_1_0" index="0" speed="13.89" length="16.62" shape="-82.22,41.98 -82.25,25.35"/>
    </edge>
    <edge id=":J8_2" function="internal">
        <lane id=":J8_2_0" index="0" speed="12.77" length="3.20" shape="-82.22,41.98 -81.50,38.85"/>
    </edge>
    <edge id=":J8_3" function="internal">
        <lane id=":J8_3_0" index="0" speed="9.87" length="2.63" shape="-82.22,41.98 -81.49,39.44"/>
    </edge>
    <edge id=":J8_20" function="internal">
        <lane id=":J8_20_0" index="0" speed="12.77" length="20.25" shape="-81.50,38.85 -81.28,37.88 -78.41,33.75 -73.63,29.60 -66.93,25.42"/>
    </edge>
    <edge id=":J8_21" function="internal">
        <lane id=":J8_21_0" index="0" speed="9.87" length="19.59" shape="-81.49,39.44 -81.10,38.12 -77.72,35.36 -72.06,33.70 -64.13,33.15"/>
    </edge>
    <edge id=":J8_4" function="internal">
        <lane id=":J8_4_0" index="0" speed="8.74" length="17.21" shape="-64.13,36.35 -70.66,36.70 -75.31,37.75 -78.10,39.51 -79.02,41.96"/>
    </edge>
    <edge id=":J8_5" function="internal">
        <lane id=":J8_5_0" index="0" speed="13.89" length="23.72" shape="-64.13,36.35 -87.85,36.35"/>
    </edge>
    <edge id=":J8_6" function="internal">
        <lane id=":J8_6_0" index="0" speed="10.21" length="7.96" shape="-64.13,36.35 -72.06,35.66"/>
    </edge>
    <edge id=":J8_7" function="internal">
        <lane id=":J8_7_0" index="0" speed="6.32" length="2.36" shape="-64.13,36.35 -66.37,35.61"/>
    </edge>
    <edge id=":J8_22" function="internal">
        <lane id=":J8_22_0" index="0" speed="10.21" length="15.80" shape="-72.06,35.66 -77.72,33.60 -81.12,30.17 -82.25,25.35"/>
    </edge>
    <edge id=":J8_23" function="internal">
        <lane id=":J8_23_0" index="0" speed="6.32" length="13.02" shape="-66.37,35.61 -67.99,35.07 -69.94,32.01 -69.69,28.40 -66.93,25.42"/>
    </edge>
    <edge id=":J8_8" function="internal">
        <lane id=":J8_8_0" index="0" speed="5.55" length="11.43" shape="-65.39,28.23 -68.69,30.38 -69.58,31.92 -68.06,32.84 -64.13,33.15"/>
    </edge>
    <edge id=":J8_9" function="internal">
        <lane id=":J8_9_0" index="0" speed="11.83" length="20.05" shape="-65.39,28.23 -71.36,31.89 -75.63,35.40 -78.18,38.75 -79.02,41.96"/>
    </edge>
    <edge id=":J8_10" function="internal">
        <lane id=":J8_10_0" index="0" speed="13.89" length="23.99" shape="-65.39,28.23 -70.05,30.51 -76.39,33.19 -82.85,35.42 -87.85,36.35"/>
    </edge>
    <edge id=":J8_11" function="internal">
        <lane id=":J8_11_0" index="0" speed="8.44" length="21.98" shape="-65.39,28.23 -72.77,31.51 -78.04,32.12 -81.20,30.07 -82.25,25.35"/>
    </edge>
    <edge id=":J8_12" function="internal">
        <lane id=":J8_12_0" index="0" speed="7.02" length="14.79" shape="-79.05,25.35 -78.29,27.87 -76.02,28.72 -72.23,27.90 -66.93,25.42"/>
    </edge>
    <edge id=":J8_13" function="internal">
        <lane id=":J8_13_0" index="0" speed="9.10" length="18.68" shape="-79.05,25.35 -78.12,28.77 -75.32,31.20 -70.66,32.66 -64.13,33.15"/>
    </edge>
    <edge id=":J8_14" function="internal">
        <lane id=":J8_14_0" index="0" speed="13.89" length="16.61" shape="-79.05,25.35 -79.02,41.96"/>
    </edge>
    <edge id=":J8_15" function="internal">
        <lane id=":J8_15_0" index="0" speed="8.46" length="5.07" shape="-79.05,25.35 -79.60,30.17 -79.70,30.37"/>
    </edge>
    <edge id=":J8_24" function="internal">
        <lane id=":J8_24_0" index="0" speed="8.46" length="10.94" shape="-79.70,30.37 -81.25,33.60 -84.00,35.66 -87.85,36.35"/>
    </edge>
    <edge id=":J8_16" function="internal">
        <lane id=":J8_16_0" index="0" speed="7.07" length="10.86" shape="-87.85,33.15 -85.40,32.66 -83.65,31.20 -82.60,28.77 -82.25,25.35"/>
    </edge>
    <edge id=":J8_17" function="internal">
        <lane id=":J8_17_0" index="0" speed="13.89" length="22.42" shape="-87.85,33.15 -83.09,32.28 -77.16,30.19 -71.34,27.64 -66.93,25.42"/>
    </edge>
    <edge id=":J8_18" function="internal">
        <lane id=":J8_18_0" index="0" speed="13.89" length="23.72" shape="-87.85,33.15 -64.13,33.15"/>
    </edge>
    <edge id=":J8_19" function="internal">
        <lane id=":J8_19_0" index="0" speed="8.02" length="4.07" shape="-87.85,33.15 -84.00,33.70 -83.85,33.79"/>
    </edge>
    <edge id=":J8_25" function="internal">
        <lane id=":J8_25_0" index="0" speed="8.02" length="10.15" shape="-83.85,33.79 -81.25,35.35 -79.58,38.11 -79.02,41.96"/>
    </edge>
    <edge id=":J9_0" function="internal">
        <lane id=":J9_0_0" index="0" speed="8.67" length="16.86" shape="70.52,41.95 69.61,39.50 66.89,37.75 62.36,36.70 56.01,36.35"/>
    </edge>
    <edge id=":J9_1" function="internal">
        <lane id=":J9_1_0" index="0" speed="11.90" length="19.76" shape="70.52,41.95 69.69,38.74 67.22,35.38 63.10,31.86 57.32,28.18"/>
    </edge>
    <edge id=":J9_2" function="internal">
        <lane id=":J9_2_0" index="0" speed="13.89" length="16.67" shape="70.52,41.95 70.57,25.28"/>
    </edge>
    <edge id=":J9_3" function="internal">
        <lane id=":J9_3_0" index="0" speed="8.02" length="4.09" shape="70.52,41.95 71.07,38.10 71.17,37.93"/>
    </edge>
    <edge id=":J9_20" function="internal">
        <lane id=":J9_20_0" index="0" speed="8.02" length="10.13" shape="71.17,37.93 72.72,35.35 75.48,33.69 79.34,33.13"/>
    </edge>
    <edge id=":J9_4" function="internal">
        <lane id=":J9_4_0" index="0" speed="6.53" length="9.07" shape="79.35,36.33 76.89,36.69 75.13,37.74 74.07,39.50 73.72,41.95"/>
    </edge>
    <edge id=":J9_5" function="internal">
        <lane id=":J9_5_0" index="0" speed="13.89" length="23.34" shape="79.35,36.33 56.01,36.35"/>
    </edge>
    <edge id=":J9_6" function="internal">
        <lane id=":J9_6_0" index="0" speed="13.89" length="3.89" shape="79.35,36.33 75.52,35.62"/>
    </edge>
    <edge id=":J9_7" function="internal">
        <lane id=":J9_7_0" index="0" speed="8.45" length="3.82" shape="79.35,36.33 75.59,35.67"/>
    </edge>
    <edge id=":J9_21" function="internal">
        <lane id=":J9_21_0" index="0" speed="13.89" length="19.71" shape="75.52,35.62 74.41,35.41 68.09,33.19 61.89,30.50 57.32,28.18"/>
    </edge>
    <edge id=":J9_22" function="internal">
        <lane id=":J9_22_0" index="0" speed="8.45" length="12.24" shape="75.59,35.67 75.49,35.65 72.74,33.58 71.10,30.12 70.57,25.28"/>
    </edge>
    <edge id=":J9_8" function="internal">
        <lane id=":J9_8_0" index="0" speed="7.06" length="10.89" shape="73.77,25.30 74.10,28.73 75.14,31.18 76.89,32.64 79.34,33.13"/>
    </edge>
    <edge id=":J9_9" function="internal">
        <lane id=":J9_9_0" index="0" speed="13.89" length="16.66" shape="73.77,25.30 73.72,41.95"/>
    </edge>
    <edge id=":J9_10" function="internal">
        <lane id=":J9_10_0" index="0" speed="10.17" length="3.21" shape="73.77,25.30 73.04,28.43"/>
    </edge>
    <edge id=":J9_11" function="internal">
        <lane id=":J9_11_0" index="0" speed="8.36" length="3.38" shape="73.77,25.30 73.04,28.60"/>
    </edge>
    <edge id=":J9_23" function="internal">
        <lane id=":J9_23_0" index="0" speed="10.17" length="20.25" shape="73.04,28.43 72.64,30.13 69.30,33.59 63.76,35.66 56.01,36.35"/>
    </edge>
    <edge id=":J9_24" function="internal">
        <lane id=":J9_24_0" index="0" speed="8.36" length="18.28" shape="73.04,28.60 72.72,30.05 69.62,32.12 64.49,31.49 57.32,28.18"/>
    </edge>
    <edge id=":J9_12" function="internal">
        <lane id=":J9_12_0" index="0" speed="6.92" length="14.38" shape="58.90,25.40 63.99,27.87 67.63,28.68 69.83,27.81 70.57,25.28"/>
    </edge>
    <edge id=":J9_13" function="internal">
        <lane id=":J9_13_0" index="0" speed="13.89" length="21.98" shape="58.90,25.40 63.23,27.65 68.88,30.20 74.65,32.27 79.34,33.13"/>
    </edge>
    <edge id=":J9_14" function="internal">
        <lane id=":J9_14_0" index="0" speed="12.83" length="23.10" shape="58.90,25.40 65.38,29.59 70.01,33.75 72.79,37.87 73.72,41.95"/>
    </edge>
    <edge id=":J9_15" function="internal">
        <lane id=":J9_15_0" index="0" speed="6.35" length="15.41" shape="58.90,25.40 61.64,28.42 61.87,32.04 59.88,35.08 56.01,36.35"/>
    </edge>
    <edge id=":J9_16" function="internal">
        <lane id=":J9_16_0" index="0" speed="5.53" length="11.27" shape="56.01,33.15 59.86,32.84 61.36,31.91 60.52,30.36 57.32,28.18"/>
    </edge>
    <edge id=":J9_17" function="internal">
        <lane id=":J9_17_0" index="0" speed="9.06" length="18.40" shape="56.01,33.15 62.36,32.66 66.91,31.18 69.64,28.72 70.57,25.28"/>
    </edge>
    <edge id=":J9_18" function="internal">
        <lane id=":J9_18_0" index="0" speed="13.89" length="23.33" shape="56.01,33.15 79.34,33.13"/>
    </edge>
    <edge id=":J9_19" function="internal">
        <lane id=":J9_19_0" index="0" speed="9.81" length="8.20" shape="56.01,33.15 63.76,33.70 64.17,33.82"/>
    </edge>
    <edge id=":J9_25" function="internal">
        <lane id=":J9_25_0" index="0" speed="9.81" length="13.66" shape="64.17,33.82 69.29,35.35 72.61,38.10 73.72,41.95"/>
    </edge>

    <edge id="1" from="J8" to="J18" priority="-1">
        <lane id="1_0" index="0" speed="13.89" length="37.47" shape="-87.85,36.35 -125.33,36.35"/>
    </edge>
    <edge id="10" from="J9" to="J13" priority="-1">
        <lane id="10_0" index="0" speed="13.89" length="58.97" shape="79.34,33.13 138.31,32.92"/>
    </edge>
    <edge id="11" from="J9" to="J12" priority="-1">
        <lane id="11_0" index="0" speed="13.89" length="60.52" shape="57.32,28.18 4.70,-1.71"/>
    </edge>
    <edge id="12" from="J12" to="J9" priority="-1">
        <lane id="12_0" index="0" speed="13.89" length="60.52" shape="6.28,-4.49 58.90,25.40"/>
    </edge>
    <edge id="13" from="J12" to="J8" priority="-1">
        <lane id="13_0" index="0" speed="13.89" length="62.46" shape="-10.59,-1.75 -65.39,28.23"/>
    </edge>
    <edge id="14" from="J8" to="J12" priority="-1">
        <lane id="14_0" index="0" speed="13.89" length="62.46" shape="-66.93,25.42 -12.13,-4.55"/>
    </edge>
    <edge id="15" from="J12" to="J10" priority="-1">
        <lane id="15_0" index="0" speed="13.89" length="61.94" shape="4.63,-14.02 58.13,-45.24"/>
    </edge>
    <edge id="16" from="J10" to="J12" priority="-1">
        <lane id="16_0" index="0" speed="13.89" length="61.94" shape="59.74,-42.47 6.24,-11.26"/>
    </edge>
    <edge id="17" from="J12" to="J11" priority="-1">
        <lane id="17_0" index="0" speed="13.89" length="63.63" shape="-12.08,-11.25 -67.40,-42.68"/>
    </edge>
    <edge id="18" from="J11" to="J12" priority="-1">
        <lane id="18_0" index="0" speed="13.89" length="63.63" shape="-65.82,-45.46 -10.49,-14.03"/>
    </edge>
    <edge id="19" from="J8" to="J11" priority="-1">
        <lane id="19_0" index="0" speed="13.89" length="67.90" shape="-82.25,25.35 -82.25,-42.55"/>
    </edge>
    <edge id="2" from="J18" to="J8" priority="-1">
        <lane id="2_0" index="0" speed="13.89" length="37.47" shape="-125.33,33.15 -87.85,33.15"/>
    </edge>
    <edge id="20" from="J11" to="J8" priority="-1">
        <lane id="20_0" index="0" speed="13.89" length="67.90" shape="-79.05,-42.55 -79.05,25.35"/>
    </edge>
    <edge id="21" from="J11" to="J20" priority="-1">
        <lane id="21_0" index="0" speed="13.89" length="41.18" shape="-87.85,-50.45 -129.03,-50.45"/>
    </edge>
    <edge id="22" from="J20" to="J11" priority="-1">
        <lane id="22_0" index="0" speed="13.89" length="41.18" shape="-129.03,-53.65 -87.85,-53.65"/>
    </edge>
    <edge id="23" from="J11" to="J19" priority="-1">
        <lane id="23_0" index="0" speed="13.89" length="30.76" shape="-82.25,-59.25 -82.25,-90.01"/>
    </edge>
    <edge id="24" from="J19" to="J11" priority="-1">
        <lane id="24_0" index="0" speed="13.89" length="30.76" shape="-79.05,-90.01 -79.05,-59.25"/>
    </edge>
    <edge id="25" from="J10" to="J11" priority="-1">
        <lane id="25_0" index="0" speed="13.89" length="121.29" shape="56.78,-50.24 -64.51,-50.43"/>
    </edge>
    <edge id="26" from="J11" to="J10" priority="-1">
        <lane id="26_0" index="0" speed="13.89" length="121.29" shape="-64.50,-53.63 56.79,-53.44"/>
    </edge>
    <edge id="27" from="J16" to="J10" priority="-1">
        <lane id="27_0" index="0" speed="13.89" length="58.52" shape="138.32,-50.22 79.80,-50.22"/>
    </edge>
    <edge id="28" from="J10" to="J16" priority="-1">
        <lane id="28_0" index="0" speed="13.89" length="58.52" shape="79.80,-53.42 138.32,-53.42"/>
    </edge>
    <edge id="29" from="J10" to="J15" priority="-1">
        <lane id="29_0" index="0" speed="13.89" length="31.90" shape="71.02,-59.05 71.21,-90.95"/>
    </edge>
    <edge id="3" from="J17" to="J8" priority="-1">
        <lane id="3_0" index="0" speed="13.89" length="39.31" shape="-82.02,81.29 -82.22,41.98"/>
    </edge>
    <edge id="30" from="J15" to="J10" priority="-1">
        <lane id="30_0" index="0" speed="13.89" length="31.90" shape="74.41,-90.93 74.22,-59.03"/>
    </edge>
    <edge id="31" from="J9" to="J10" priority="-1">
        <lane id="31_0" index="0" speed="13.89" length="67.50" shape="70.57,25.28 70.93,-42.22"/>
    </edge>
    <edge id="32" from="J10" to="J9" priority="-1">
        <lane id="32_0" index="0" speed="13.89" length="67.50" shape="74.13,-42.20 73.77,25.30"/>
    </edge>
    <edge id="4" from="J8" to="J17" priority="-1">
        <lane id="4_0" index="0" speed="13.89" length="39.31" shape="-79.02,41.96 -78.82,81.27"/>
    </edge>
    <edge id="5" from="J9" to="J8" priority="-1">
        <lane id="5_0" index="0" speed="13.89" length="120.14" shape="56.01,36.35 -64.13,36.35"/>
    </edge>
    <edge id="6" from="J8" to="J9" priority="-1">
        <lane id="6_0" index="0" speed="13.89" length="120.14" shape="-64.13,33.15 56.01,33.15"/>
    </edge>
    <edge id="7" from="J14" to="J9" priority="-1">
        <lane id="7_0" index="0" speed="13.89" length="39.33" shape="70.52,81.28 70.52,41.95"/>
    </edge>
    <edge id="8" from="J9" to="J14" priority="-1">
        <lane id="8_0" index="0" speed="13.89" length="39.33" shape="73.72,41.95 73.72,81.28"/>
    </edge>
    <edge id="9" from="J13" to="J9" priority="-1">
        <lane id="9_0" index="0" speed="13.89" length="58.97" shape="138.32,36.12 79.35,36.33"/>
    </edge>

    <tlLogic id="J10" type="static" programID="0" offset="0">
        <phase duration="27" state="rrrrGGggrrrrrrrrGGGg"/>
        <phase duration="3"  state="rrrryyyyrrrrrrrryyyy"/>
        <phase duration="27" state="GGGgrrrrGGggrrrrrrrr"/>
        <phase duration="3"  state="yyyyrrrryyyyrrrrrrrr"/>
        <phase duration="27" state="rrrrrrrrrrrrGGGGGrrr"/>
        <phase duration="3"  state="rrrrrrrrrrrryyyyGrrr"/>
    </tlLogic>
    <tlLogic id="J11" type="static" programID="0" offset="0">
        <phase duration="27" state="GGggrrrrrrrrGGGgrrrr"/>
        <phase duration="3"  state="yyyyrrrrrrrryyyyrrrr"/>
        <phase duration="27" state="rrrrrrrrGGGgrrrrGGgg"/>
        <phase duration="3"  state="rrrrrrrrGyyyrrrryyyy"/>
        <phase duration="27" state="rrrrGGGGGrrrrrrrrrrr"/>
        <phase duration="3"  state="rrrryyyyyrrrrrrrrrrr"/>
    </tlLogic>
    <tlLogic id="J12" type="static" programID="0" offset="0">
        <phase duration="42" state="GGgrrrGGgrrr"/>
        <phase duration="3"  state="yyyrrryyyrrr"/>
        <phase duration="42" state="rrrGGgrrrGGg"/>
        <phase duration="3"  state="rrryyyrrryyy"/>
    </tlLogic>
    <tlLogic id="J8" type="static" programID="0" offset="0">
        <phase duration="27" state="rrrrGGggrrrrrrrrGGGg"/>
        <phase duration="3"  state="rrrryyyyrrrrrrrryyyy"/>
        <phase duration="27" state="GGggrrrrrrrrGGGgrrrr"/>
        <phase duration="3"  state="yyyyrrrrrrrrGyyyrrrr"/>
        <phase duration="27" state="rrrrrrrrGGGGGrrrrrrr"/>
        <phase duration="3"  state="rrrrrrrryyyyyrrrrrrr"/>
    </tlLogic>
    <tlLogic id="J9" type="static" programID="0" offset="0">
        <phase duration="27" state="rrrrGGggrrrrrrrrGGGg"/>
        <phase duration="3"  state="rrrryyyyrrrrrrrryyyy"/>
        <phase duration="27" state="GGGgrrrrGGggrrrrrrrr"/>
        <phase duration="3"  state="yyyyrrrryyyyrrrrrrrr"/>
        <phase duration="27" state="rrrrrrrrrrrrGGGGGrrr"/>